Version 4
SHEET 1 880 680
WIRE 272 112 -48 112
WIRE -48 192 -48 112
WIRE 272 224 272 192
WIRE 384 224 272 224
WIRE 272 272 272 224
WIRE -48 352 -48 272
WIRE 272 352 272 336
WIRE 272 352 -48 352
WIRE -48 384 -48 352
FLAG -48 384 0
FLAG 384 224 Vout
SYMBOL res 256 96 R0
SYMATTR InstName R1
SYMATTR Value {Rvar}
SYMBOL voltage -48 176 R0
WINDOW 123 0 0 Left 0
WINDOW 39 0 0 Left 0
SYMATTR InstName V1
SYMATTR Value PULSE(0 {Ui} 0 1e-9 1e-9 1e-6 2e-6 1)
SYMBOL cap 256 272 R0
SYMATTR InstName C1
SYMATTR Value 0.2e-6
TEXT -80 408 Left 2 !.tran 0 1e-6 0 10e-9
TEXT 24 48 Left 2 ;Voltage Divider
TEXT -64 -48 Left 2 !.PARAM Ui=10
TEXT -56 -16 Left 2 !.PARAM R=1hm
TEXT -48 16 Left 2 !.step param Rvar= 0.25 1 0.25
