Version 4
SHEET 1 1080 680
WIRE 288 48 -32 48
WIRE -32 128 -32 48
WIRE 288 160 288 128
WIRE 400 160 288 160
WIRE 288 208 288 160
WIRE -32 288 -32 208
WIRE 288 288 -32 288
WIRE -32 320 -32 288
FLAG -32 320 0
FLAG 400 160 Vout
SYMBOL res 272 32 R0
SYMATTR InstName R1
SYMATTR Value {R}
SYMBOL res 272 192 R0
SYMATTR InstName R2
SYMATTR Value {Rvar}
SYMBOL voltage -32 112 R0
WINDOW 123 0 0 Left 0
WINDOW 39 0 0 Left 0
SYMATTR InstName V1
SYMATTR Value PULSE(0 {Ui} 0 10e-9 10e-9 1e-6 2e-6 1)
TEXT -64 344 Left 2 !.tran 0 1e-6 0 10e-9
TEXT 40 -16 Left 2 ;Voltage Divider
TEXT -48 -112 Left 2 !.PARAM Ui=10
TEXT -40 -80 Left 2 !.PARAM R=1hm
TEXT -32 -48 Left 2 !.step param Rvar= 1e-9 2 0.5
